&NAMPISMOD
 LN_P2Z=F,
 LN_P4Z=T,
 LN_P5Z=F,
 LN_LIGAND=F,
 LN_SEDIMENT=F,
 /
&NAMPISBIO
 NRDTTRC=          1,
 WSBIO=  2.0000000000000000     ,
 XKMORT=  1.9999999999999999E-007,
 FERAT3=  1.0000000000000001E-005,
 WSBIO2=  50.000000000000000     ,
 WSBIO2MAX=  50.000000000000000     ,
 WSBIO2SCALE=  5000.0000000000000     ,
 LDOCP=  1.0000000000000000E-004,
 LDOCZ=  1.0000000000000000E-004,
 LTHET=  1.0000000000000000     ,
 NO3RAT3= 0.18200000000000000     ,
 PO4RAT3=  9.4000000000000004E-003,
 /
&NAMPISDMP
 LN_PISDMP=T,
 NN_PISDMP=       5475,
 /
&NAMPISMASS
 LN_CHECK_MASS=F,
 /
&NAMPISOPT
 CN_DIR="./                                                                                                  ",
 SN_PAR%CLNAME="par_fr_gewex_clim_HOT.nc                                                                                                                                                                                                                                        ",
 SN_PAR%FREQH=  24.000000000000000     ,
 SN_PAR%CLVAR="fr_par                            ",
 SN_PAR%LN_TINT=T,
 SN_PAR%LN_CLIM=T,
 SN_PAR%CLTYPE="yearly  ",
 SN_PAR%WNAME="                                                                                                                                                                                                                                                                ",
 SN_PAR%VCOMP="                                  ",
 SN_PAR%LNAME="                                  ",
 LN_VARPAR=T,
 PARLUX= 0.42999999999999999     ,
 /
&NAMP4ZLIM
 CONCNNO3=  9.9999999999999995E-007,
 CONCDNO3=  3.0000000000000001E-006,
 CONCNNH4=  9.9999999999999995E-008,
 CONCDNH4=  2.9999999999999999E-007,
 CONCNFER=  1.0000000000000001E-009,
 CONCDFER=  3.0000000000000000E-009,
 CONCBFE=  9.9999999999999994E-012,
 CONCBNO3=  1.9999999999999999E-007,
 CONCBNH4=  2.0000000000000000E-008,
 XSIZEDIA=  9.9999999999999995E-007,
 XSIZEPHY=  9.9999999999999995E-007,
 XSIZERN=  3.0000000000000000     ,
 XSIZERD=  3.0000000000000000     ,
 XKSI1=  1.9999999999999999E-006,
 XKSI2=  2.0000000000000002E-005,
 XKDOC=  4.1700000000000000E-004,
 QNFELIM=  6.9999999999999999E-006,
 QDFELIM=  6.9999999999999999E-006,
 CACO3R= 0.29999999999999999     ,
 OXYMIN=  9.9999999999999995E-007,
 /
&NAMP4ZPROD
 PISLOPEN=  2.0000000000000000     ,
 PISLOPED=  2.0000000000000000     ,
 XADAP=  0.0000000000000000     ,
 BRESP=  3.3000000000000002E-002,
 EXCRETN=  5.0000000000000003E-002,
 EXCRETD=  5.0000000000000003E-002,
 CHLCNM=  3.3000000000000002E-002,
 CHLCDM=  5.0000000000000003E-002,
 CHLCMIN=  4.0000000000000001E-003,
 FECNM=  4.0000000000000003E-005,
 FECDM=  4.0000000000000003E-005,
 GROSIP= 0.15900000000000000     ,
 /
&NAMPISSBC
 CN_DIR="./                                                                                                  ",
 SN_DUST%CLNAME="Dust_HOT                                                                                                                                                                                                                                                        ",
 SN_DUST%FREQH= -1.0000000000000000     ,
 SN_DUST%CLVAR="dust                              ",
 SN_DUST%LN_TINT=T,
 SN_DUST%LN_CLIM=T,
 SN_DUST%CLTYPE="yearly  ",
 SN_DUST%WNAME="                                                                                                                                                                                                                                                                ",
 SN_DUST%VCOMP="                                  ",
 SN_DUST%LNAME="                                  ",
 SN_SOLUB%CLNAME="Solubility_Mahowald_HOT                                                                                                                                                                                                                                         ",
 SN_SOLUB%FREQH= -12.000000000000000     ,
 SN_SOLUB%CLVAR="solubility2                       ",
 SN_SOLUB%LN_TINT=F,
 SN_SOLUB%LN_CLIM=T,
 SN_SOLUB%CLTYPE="yearly  ",
 SN_SOLUB%WNAME="                                                                                                                                                                                                                                                                ",
 SN_SOLUB%VCOMP="                                  ",
 SN_SOLUB%LNAME="                                  ",
 SN_RIVERDIC%CLNAME="river.orca                                                                                                                                                                                                                                                      ",
 SN_RIVERDIC%FREQH=  120.00000000000000     ,
 SN_RIVERDIC%CLVAR="riverdic                          ",
 SN_RIVERDIC%LN_TINT=T,
 SN_RIVERDIC%LN_CLIM=T,
 SN_RIVERDIC%CLTYPE="yearly  ",
 SN_RIVERDIC%WNAME="                                                                                                                                                                                                                                                                ",
 SN_RIVERDIC%VCOMP="                                  ",
 SN_RIVERDIC%LNAME="                                  ",
 SN_RIVERDOC%CLNAME="river.orca                                                                                                                                                                                                                                                      ",
 SN_RIVERDOC%FREQH=  120.00000000000000     ,
 SN_RIVERDOC%CLVAR="riverdoc                          ",
 SN_RIVERDOC%LN_TINT=T,
 SN_RIVERDOC%LN_CLIM=T,
 SN_RIVERDOC%CLTYPE="yearly  ",
 SN_RIVERDOC%WNAME="                                                                                                                                                                                                                                                                ",
 SN_RIVERDOC%VCOMP="                                  ",
 SN_RIVERDOC%LNAME="                                  ",
 SN_RIVERDIN%CLNAME="river.orca                                                                                                                                                                                                                                                      ",
 SN_RIVERDIN%FREQH=  120.00000000000000     ,
 SN_RIVERDIN%CLVAR="riverdin                          ",
 SN_RIVERDIN%LN_TINT=T,
 SN_RIVERDIN%LN_CLIM=T,
 SN_RIVERDIN%CLTYPE="yearly  ",
 SN_RIVERDIN%WNAME="                                                                                                                                                                                                                                                                ",
 SN_RIVERDIN%VCOMP="                                  ",
 SN_RIVERDIN%LNAME="                                  ",
 SN_RIVERDON%CLNAME="river.orca                                                                                                                                                                                                                                                      ",
 SN_RIVERDON%FREQH=  120.00000000000000     ,
 SN_RIVERDON%CLVAR="riverdon                          ",
 SN_RIVERDON%LN_TINT=T,
 SN_RIVERDON%LN_CLIM=T,
 SN_RIVERDON%CLTYPE="yearly  ",
 SN_RIVERDON%WNAME="                                                                                                                                                                                                                                                                ",
 SN_RIVERDON%VCOMP="                                  ",
 SN_RIVERDON%LNAME="                                  ",
 SN_RIVERDIP%CLNAME="river.orca                                                                                                                                                                                                                                                      ",
 SN_RIVERDIP%FREQH=  120.00000000000000     ,
 SN_RIVERDIP%CLVAR="riverdip                          ",
 SN_RIVERDIP%LN_TINT=T,
 SN_RIVERDIP%LN_CLIM=T,
 SN_RIVERDIP%CLTYPE="yearly  ",
 SN_RIVERDIP%WNAME="                                                                                                                                                                                                                                                                ",
 SN_RIVERDIP%VCOMP="                                  ",
 SN_RIVERDIP%LNAME="                                  ",
 SN_RIVERDOP%CLNAME="river.orca                                                                                                                                                                                                                                                      ",
 SN_RIVERDOP%FREQH=  120.00000000000000     ,
 SN_RIVERDOP%CLVAR="riverdop                          ",
 SN_RIVERDOP%LN_TINT=T,
 SN_RIVERDOP%LN_CLIM=T,
 SN_RIVERDOP%CLTYPE="yearly  ",
 SN_RIVERDOP%WNAME="                                                                                                                                                                                                                                                                ",
 SN_RIVERDOP%VCOMP="                                  ",
 SN_RIVERDOP%LNAME="                                  ",
 SN_RIVERDSI%CLNAME="river.orca                                                                                                                                                                                                                                                      ",
 SN_RIVERDSI%FREQH=  120.00000000000000     ,
 SN_RIVERDSI%CLVAR="riverdsi                          ",
 SN_RIVERDSI%LN_TINT=T,
 SN_RIVERDSI%LN_CLIM=T,
 SN_RIVERDSI%CLTYPE="yearly  ",
 SN_RIVERDSI%WNAME="                                                                                                                                                                                                                                                                ",
 SN_RIVERDSI%VCOMP="                                  ",
 SN_RIVERDSI%LNAME="                                  ",
 SN_NDEPO%CLNAME="Ndep_HOT                                                                                                                                                                                                                                                        ",
 SN_NDEPO%FREQH= -12.000000000000000     ,
 SN_NDEPO%CLVAR="ndep2                             ",
 SN_NDEPO%LN_TINT=T,
 SN_NDEPO%LN_CLIM=T,
 SN_NDEPO%CLTYPE="yearly  ",
 SN_NDEPO%WNAME="                                                                                                                                                                                                                                                                ",
 SN_NDEPO%VCOMP="                                  ",
 SN_NDEPO%LNAME="                                  ",
 SN_IRONSED%CLNAME="pmarge_etopo_HOT                                                                                                                                                                                                                                                ",
 SN_IRONSED%FREQH= -12.000000000000000     ,
 SN_IRONSED%CLVAR="bathy                             ",
 SN_IRONSED%LN_TINT=F,
 SN_IRONSED%LN_CLIM=T,
 SN_IRONSED%CLTYPE="yearly  ",
 SN_IRONSED%WNAME="                                                                                                                                                                                                                                                                ",
 SN_IRONSED%VCOMP="                                  ",
 SN_IRONSED%LNAME="                                  ",
 SN_HYDROFE%CLNAME="hydrofe.orca                                                                                                                                                                                                                                                    ",
 SN_HYDROFE%FREQH= -12.000000000000000     ,
 SN_HYDROFE%CLVAR="epsdb                             ",
 SN_HYDROFE%LN_TINT=F,
 SN_HYDROFE%LN_CLIM=T,
 SN_HYDROFE%CLTYPE="yearly  ",
 SN_HYDROFE%WNAME="                                                                                                                                                                                                                                                                ",
 SN_HYDROFE%VCOMP="                                  ",
 SN_HYDROFE%LNAME="                                  ",
 LN_DUST=T,
 LN_SOLUB=T,
 LN_RIVER=F,
 LN_NDEPO=T,
 LN_IRONSED=T,
 LN_IRONICE=F,
 LN_HYDROFE=F,
 SEDFEINPUT=  2.0000000000000001E-009,
 DISTCOAST=  5000.0000000000000     ,
 DUSTSOLUB=  2.0000000000000000E-002,
 ICEFEINPUT=  1.4999999999999999E-008,
 WDUST=  2.0000000000000000     ,
 MFRAC=  3.5000000000000003E-002,
 NITRFIX=  9.9999999999999995E-008,
 DIAZOLIGHT=  50.000000000000000     ,
 CONCFEDIAZ=  1.0000000000000000E-010,
 HRATIO=  10000000.000000000     ,
 LGW_RATH= 0.50000000000000000     ,
 /
&NAMPISFER
 LN_LIGVAR=F,
 XLAM1=  5.0000000000000001E-003,
 XLAMDUST=  150.00000000000000     ,
 LIGAND=  6.9999999999999996E-010,
 KFEP=  1.0000000000000000E-002,
 /
&NAMPISREM
 XREMIK= 0.29999999999999999     ,
 NITRIF=  5.0000000000000003E-002,
 XSIREM=  3.0000000000000001E-003,
 XSIREMLAB=  2.9999999999999999E-002,
 XSILAB= 0.50000000000000000     ,
 FERATB=  1.0000000000000001E-005,
 XKFERB=  3.0000000000000000E-010,
 XREMIKC= 0.25000000000000000     ,
 XREMIKN= 0.34999999999999998     ,
 XREMIKP= 0.40000000000000002     ,
 /
&NAMPISPOC
 XREMIP=  3.5000000000000003E-002,
 JCPOC=         15,
 RSHAPE=  1.0000000000000000     ,
 XREMIPC=  2.0000000000000000E-002,
 XREMIPN=  2.5000000000000001E-002,
 XREMIPP=  2.9999999999999999E-002,
 /
&NAMP4ZMORT
 WCHL=  1.0000000000000000E-002,
 WCHLD=  1.0000000000000000E-002,
 WCHLDM=  2.9999999999999999E-002,
 MPRAT=  1.0000000000000000E-002,
 MPRAT2=  1.0000000000000000E-002,
 /
&NAMP4ZZOO
 PART= 0.50000000000000000     ,
 GRAZRAT=  3.0000000000000000     ,
 RESRAT=  2.9999999999999999E-002,
 MZRAT=  4.0000000000000001E-003,
 XPREFN=  1.0000000000000000     ,
 XPREFC= 0.10000000000000001     ,
 XPREFD= 0.59999999999999998     ,
 XTHRESHDIA=  1.0000000000000000E-008,
 XTHRESHPHY=  1.0000000000000000E-008,
 XTHRESHPOC=  1.0000000000000000E-008,
 XTHRESH=  2.9999999999999999E-007,
 XKGRAZ=  2.0000000000000002E-005,
 EPSHER= 0.29999999999999999     ,
 EPSHERMIN= 0.29999999999999999     ,
 SIGMA1= 0.59999999999999998     ,
 UNASS= 0.29999999999999999     ,
 /
&NAMP4ZMES
 PART2= 0.75000000000000000     ,
 GRAZRAT2= 0.75000000000000000     ,
 RESRAT2=  5.0000000000000001E-003,
 MZRAT2=  2.9999999999999999E-002,
 XPREF2N= 0.29999999999999999     ,
 XPREF2D=  1.0000000000000000     ,
 XPREF2Z=  1.0000000000000000     ,
 XPREF2C= 0.29999999999999999     ,
 XTHRESH2DIA=  1.0000000000000000E-008,
 XTHRESH2PHY=  1.0000000000000000E-008,
 XTHRESH2ZOO=  1.0000000000000000E-008,
 XTHRESH2POC=  1.0000000000000000E-008,
 XTHRESH2=  2.9999999999999999E-007,
 XKGRAZ2=  2.0000000000000002E-005,
 EPSHER2= 0.34999999999999998     ,
 EPSHER2MIN= 0.34999999999999998     ,
 SIGMA2= 0.59999999999999998     ,
 UNASS2= 0.29999999999999999     ,
 GRAZFLUX=  3000.0000000000000     ,
 /
&NAMPISCAL
 KDCA=  6.0000000000000000     ,
 NCA=  1.0000000000000000     ,
 /
&NAMPISEXT
 LN_CO2INT=F,
 ATCCO2=  280.00000000000000     ,
 CLNAME="atcco2.txt                        ",
 NN_OFFSET=          0,
 /
&NAMPISATM
 LN_PRESATM=F,
 LN_PRESATMCO2=F,
 SN_PATM%CLNAME="presatm                                                                                                                                                                                                                                                         ",
 SN_PATM%FREQH= -1.0000000000000000     ,
 SN_PATM%CLVAR="patm                              ",
 SN_PATM%LN_TINT=T,
 SN_PATM%LN_CLIM=T,
 SN_PATM%CLTYPE="yearly  ",
 SN_PATM%WNAME="                                                                                                                                                                                                                                                                ",
 SN_PATM%VCOMP="                                  ",
 SN_PATM%LNAME="                                  ",
 SN_ATMCO2%CLNAME="presatmco2                                                                                                                                                                                                                                                      ",
 SN_ATMCO2%FREQH= -1.0000000000000000     ,
 SN_ATMCO2%CLVAR="xco2                              ",
 SN_ATMCO2%LN_TINT=T,
 SN_ATMCO2%LN_CLIM=T,
 SN_ATMCO2%CLTYPE="yearly  ",
 SN_ATMCO2%WNAME="                                                                                                                                                                                                                                                                ",
 SN_ATMCO2%VCOMP="                                  ",
 SN_ATMCO2%LNAME="                                  ",
 CN_DIR="./                                                                                                  ",
 /
